/*--------------------------------*- C++ -*----------------------------------*\
  =========                 |
  \\      /  F ield         | OpenFOAM: The Open Source CFD Toolbox
   \\    /   O peration     | Website:  https://openfoam.org
    \\  /    A nd           | Version:  6
     \\/     M anipulation  |
\*---------------------------------------------------------------------------*/
FoamFile
{
    version     2.0;
    format      ascii;
    class       dictionary;
    location    "constant";
    object      HFDIBDict;
}
// * * * * * * * * * * * * * * * * * * * * * * * * * * * * * * * * * * * * * //
bodyNames ( "impellerSphere" "sphere3" );

interpolationSchemes
{
  U cellPointFace;
}

surfaceThreshold    1e-4;
minDEMloops    10;
minDEMtimeStep    0.1;
maxDistInDEMloop    100;
geometricD (1 1 -1);
recordSimulation true;

wallProps
{
	kN     1e7;
	gammaN 0;
	kt     0;
	gammat 0;
	mu 0;
	adhN 0;
}

impellerSphere
{
prescribedTransRotBody
 {
    axis     (0 0 -1);
    velocity (0 0 0);
    omega    20;
 }
rho         rho [1 -3 0 0 0 0 0] 3950;
refineMC 5;
U
{
	BC  noSlip;
}
kN     1e5;
gammaN 2;
kt     0;
gammat 0;
mu     7;
adhN 0;
adhEqui 0;
bodyGeom nonConvex;
bodyConvex false;
updateTorque false;
sdBasedLambda false;
interfaceSpan 1.0;
startSynced false;
velRelaxFac 0.05;
refineBuffers 2;
useInterpolation false;
timesToSetStatic -1;
bodyAddition
{
	addModel once;
	distributionCoeffs
	{
		addMode fieldBased;
        stlBaseSize        1e-5;
		fieldBasedCoeffs
		{
			fieldName lambda;
			fieldValue 0.05;
		}
		addDomain boundBox;
		boundBoxCoeffs
		{
			minBound (0 -0.00004 0);
			maxBound (0.0001628 -0.00001 0.0001628);
		}
	}
}
}

sphere3
{
fullyCoupledBody;
rho         rho [1 -3 0 0 0 0 0] 3950;
refineMC 5;
U
{
	BC  noSlip;
}
kN     1e7;
gammaN 0;
kt     0;
gammat 0;
mu     7;
adhN 0;
adhEqui 0;
bodyGeom sphere;
sphere
{
    startPosition   (9e-3 0.046 0);
    radius  0.006;
}
bodyConvex true;
updateTorque false;
sdBasedLambda false;
interfaceSpan 1.0;
startSynced false;
velRelaxFac 0.05;
refineBuffers 2;
useInterpolation false;
timesToSetStatic -1;
bodyAddition
{
	addModel once;
	distributionCoeffs
	{
		addMode fieldBased;
        stlBaseSize        1e-5;
		fieldBasedCoeffs
		{
			fieldName lambda;
			fieldValue 0.05;
		}
		addDomain boundBox;
		boundBoxCoeffs
		{
			minBound (0 -0.00004 0);
			maxBound (0.0001628 -0.00001 0.0001628);
		}
	}
}
}
// ************************************************************************* //
